Using: /global/apps3/hspice_2013.12-SP1/hspice/linux/hspice calib.sp
 ****** HSPICE -- I-2013.12-SP1 32-BIT (Feb 25 2014) RHEL32 ******              
  Copyright (C) 2014 Synopsys, Inc. All Rights Reserved.                        
  Unpublished-rights reserved under US copyright laws.
  This program is protected by law and is subject to the
  terms and conditions of the license agreement from Synopsys.
  Use of this program is your acceptance to be bound by the
  license agreement. HSPICE is the trademark of Synopsys, Inc.
  Input File: calib.sp                                                          
  Command line options: calib.sp
 lic:  
 lic: FLEXlm: v10.9.8 
 lic: USER:   ronaldv              HOSTNAME: igcae180 
 lic: HOSTID: 00215a4d0014         PID:      19256 
 lic: Using FLEXlm license file: 
 lic: 26585@us01-lic19 
 lic: Checkout 1 hspice 
 lic: License/Maintenance for hspice will expire on 31-jan-2015/2015.12 
 lic: 522(in_use)/10000(total) FLOATING license(s) on SERVER 26585@us01-lic19 
 lic:   
 Init: read install configuration file: /global/apps3/hspice_2013.12-SP1/hspice/meta.cfg

 **warning**  runlvl smaller than 5, reset to 5  when accurate turned on
  **warning** (calib.sp:23) Global net name, "gnd", in subckt pin list. The pin will be connected to the local net. Recommend to not use global net names in subckt pin lists.

 **warning**  runlvl smaller than 5, reset to 5  when accurate turned on
  **info** (calib.sp:31) DC voltage reset to initial transient source value              in source        0:vinput              new dc=  0.0000D+00
 

 Warning: Pd = 0 is less than Weff = 2.50553e-06.
 Model:    0:ami06n
 Element: mpdn
 W = 3e-06, L = 6e-07

  
      
 **info** set option symb=1 internally to help for convergence.
 *****************************************************************
 ******  option summary
 ******
 runlvl  = 5         bypass  = 2         
  Opening plot unit= 15
 file=calib.pa0


     optimization  results

          residual sum of squares     =   457.518    
          norm of the gradient        =   240.329    
          marquardt scaling parameter =   4.11216    
          no. of function evaluations =       16
          no. of iterations           =        5

     optimization completed

          parameters < relin=  1.0000E-03 on last iterations

 **** optimized parameters optrange
*                                        %norm-sen        %change

 .param cpermicron =   1.4052f       $  100.0000        -74.5549m      
 ****

 **info** dc convergence successful at Newton-Raphson method 
 ****** HSPICE -- I-2013.12-SP1 32-BIT (Feb 25 2014) RHEL32 ******              
 ******  
 * calibration for amis 0.5um

  ******  operating point information tnom=  25.000 temp=  25.000 *****
 ***** operating point status is voltage   simulation time is     0.     
    node    =voltage      node    =voltage      node    =voltage

 +0:a1      =   0.      0:vdd     =   3.3000  0:y1      =   3.3000 
 +0:y1_cd   =   3.3000  0:y1_cg   =   3.3000  0:y2      =   9.5078n
 +0:y2_cd   =   9.5078n 0:y2_cg   =   9.5078n 0:y3      =   3.3000 
 +0:y4      =   9.5078n

 ******  
 * calibration for amis 0.5um

  ******  transient analysis tnom=  25.000 temp=  25.000 *****
 inputcap= 2.024e-19
 cdpermic= 899.9122a
 cpermic=   1.4052f
 rp=  36.9958k
 rn=  16.2938k
 invr= 262.3665p  targ= 587.8045p   trig= 325.4381p
 capr= 247.3415p  targ= 572.7585p   trig= 325.4170p
 diffr= 262.4143p  targ= 587.8280p   trig= 325.4137p
 invf= 231.1041p  targ=   1.4677n   trig=   1.2366n
 capf= 246.3300p  targ=   1.4838n   trig=   1.2375n
 difff= 237.0373p  targ=   1.4748n   trig=   1.2377n
 errorr=  15.0249p
 errorf=  15.2260p
 ediff_r=  47.8018f
 ediff_f=   5.9332p

          ***** job concluded
 ****** HSPICE -- I-2013.12-SP1 32-BIT (Feb 25 2014) RHEL32 ******              
 ******  
 * calibration for amis 0.5um

  ******  job statistics summary tnom=  25.000 temp=  25.000 *****
  
  
 ******  Machine Information  ******
 CPU:
 model name	: Intel(R) Xeon(R) CPU           E5450  @ 3.00GHz
 cpu MHz	: 3000.106
  
 OS:
 Linux version 2.6.18-194.8.1.el5 (mockbuild@x86-006.build.bos.redhat.com) (gcc version 4.1.2 20080704 (Red Hat 4.1.2-48)) #1 SMP Wed Jun 23 10:52:51 EDT 2010


  ******  HSPICE Threads Information  ******

  Command Line Threads Count :     1
  Available CPU Count        :     8
  Actual Threads Count       :     1


  ******  Circuit Statistics  ******
  # nodes       =      11 # elements   =      20
  # resistors   =       0 # capacitors =       1 # inductors   =       0
  # mutual_inds =       0 # vccs       =       0 # vcvs        =       0
  # cccs        =       0 # ccvs       =       0 # volt_srcs   =       2
  # curr_srcs   =       0 # diodes     =       0 # bjts        =       0
  # jfets       =       0 # mosfets    =      17 # U elements  =       0
  # T elements  =       0 # W elements =       0 # B elements  =       0
  # S elements  =       0 # P elements =       0 # va device   =       0
  # vector_srcs =       0 # N elements =       0


  ******  Runtime Statistics (seconds)  ******

  analysis           time    # points   tot. iter  conv.iter
  op point           0.01           1          51
  transient          0.54        6667        9179        3723 rev=       600
  readin             0.03
  errchk             0.00
  setup              0.00
  output             0.00


           peak memory used        118.88 megabytes
           total cpu time            0.60 seconds
           total elapsed time        1.68 seconds
           job started at     08:03:28 05/14/2014
           job ended   at     08:03:30 05/14/2014


 lic: Release hspice token(s) 
 lic: total license checkout elapse time:        1.07(s)
